194
# Si4 Mo6                               
Si    0.894960    4.189000    0.009413
Si    5.737637    2.426185   12.909345
Si    4.182964    5.743235    0.010883
Si    2.397224    0.852737    0.010724
Si    7.518410    4.206958    0.059058
Si   12.377458    2.418583    0.002846
Si   10.822360    5.740582    0.018210
Si    9.054687    0.871512    0.010883
Si    0.862423   10.796780    0.039852
Si    5.730036    9.066006    0.002846
Si    4.164189   12.331580    0.010724
Si    2.418298    7.497528    0.009410
Si    7.500453   10.829316    0.009413
Si   12.354007    9.042555   13.184547
Si   10.808980   12.352655    0.009410
Si    9.052034    7.510908    0.018210
Si    0.905571    4.189898    3.296381
Si    5.715832    2.404380    3.296381
Si    4.220897    5.721834    3.296381
Si    2.462761    0.887723    3.296381
Si    7.482661    4.171209    3.296381
Si   12.379270    2.422383    3.296381
Si   10.833791    5.735273    3.296381
Si    9.033286    0.909445    3.296381
Si    0.873136   10.807492    3.296381
Si    5.733835    9.067818    3.296381
Si    4.199175   12.397117    3.296381
Si    2.425407    7.486345    3.296381
Si    7.501351   10.839927    3.296381
Si   12.358378    9.046926    3.296381
Si   10.797797   12.359763    3.296381
Si    9.046726    7.522339    3.296381
Si    0.894960    4.189000    6.583349
Si    5.737637    2.426185    6.868942
Si    4.182964    5.743235    6.581879
Si    2.397224    0.852737    6.582039
Si    7.518410    4.206958    6.533704
Si   12.377458    2.418583    6.589916
Si   10.822360    5.740582    6.574552
Si    9.054687    0.871512    6.581879
Si    0.862423   10.796780    6.552911
Si    5.730036    9.066006    6.589916
Si    4.164189   12.331580    6.582039
Si    2.418298    7.497528    6.583353
Si    7.500453   10.829316    6.583349
Si   12.354007    9.042555    6.593740
Si   10.808980   12.352655    6.583353
Si    9.052034    7.510908    6.574552
Si    0.867471    4.197109    9.889144
Si    4.170705    5.736035    9.889144
Si    2.343529    0.821755    9.889144
Si    7.570065    4.258613    9.889144
Si   12.378378    2.408287    9.889144
Si   10.809859    5.738316    9.889144
Si    9.047487    0.859252    9.889144
Si    0.852886   10.787242    9.889144
Si    5.719739    9.066925    9.889144
Si    4.133208   12.277885    9.889144
Si    2.419007    7.502154    9.889144
Si    7.508560   10.801828    9.889144
Si   12.354374    9.042922    9.889144
Si   10.813606   12.353364    9.889144
Si    9.049769    7.498406    9.889144
Mo    5.755337    2.443885    9.889144
Mo    3.347643    3.299910   13.097621
Mo   13.229458   13.240337    0.033972
Mo    4.406131    1.094679    1.589768
Mo    2.253357    5.529560    1.649035
Mo    1.116101    2.249822    1.645635
Mo    5.513790    4.321262    1.625514
Mo    9.966089    3.309852    0.133754
Mo    6.611362    0.036190   13.097621
Mo   11.009842    1.058065    1.654738
Mo    8.873197    5.561746    1.675340
Mo    7.632714    2.202338    1.625514
Mo   12.204848    4.388138    1.657687
Mo    3.305981    9.918006    0.033972
Mo   13.241503    6.618632    0.009950
Mo    4.369517    7.698390    1.654738
Mo    2.231330   12.165686    1.668450
Mo    1.065534    8.849649    1.656818
Mo    5.561274   11.050458    1.645635
Mo    9.930084    9.930051    0.009950
Mo    6.621304    6.654636    0.133754
Mo   11.011248    7.699796    1.657121
Mo    8.841011   12.187714    1.649035
Mo    7.699590    8.893396    1.657687
Mo   12.161101   10.999890    1.656818
Mo    3.322309    3.300706    3.296381
Mo   13.242451   13.244961    3.296381
Mo    4.406131    1.094679    5.002994
Mo    2.253357    5.529560    4.943727
Mo    1.116101    2.249822    4.947128
Mo    5.513790    4.321262    4.967248
Mo    9.927552    3.303995    3.296381
Mo    6.612158    0.010857    3.296381
Mo   11.009842    1.058065    4.938025
Mo    8.873197    5.561746    4.917423
Mo    7.632714    2.202338    4.967248
Mo   12.204848    4.388138    4.935075
Mo    3.310604    9.930999    3.296381
Mo    0.001694    6.613832    3.296381
Mo    4.369517    7.698390    4.938025
Mo    2.231330   12.165686    4.924312
Mo    1.065534    8.849649    4.935944
Mo    5.561274   11.050458    4.947128
Mo    9.925284    9.936051    3.296381
Mo    6.615447    6.616100    3.296381
Mo   11.011248    7.699796    4.935642
Mo    8.841011   12.187714    4.943727
Mo    7.699590    8.893396    4.935075
Mo   12.161101   10.999890    4.935944
Mo    3.347643    3.299910    6.680667
Mo   13.229458   13.240337    6.558790
Mo    4.244811    0.933358    8.274002
Mo    2.200125    5.549883    8.237356
Mo    1.102496    2.267451    8.237234
Mo    5.686959    4.626175    8.233018
Mo    9.966089    3.309852    6.459008
Mo    6.611362    0.036190    6.680667
Mo   10.989516    1.060832    8.234641
Mo    8.862988    5.551537    8.201537
Mo    7.937628    2.375507    8.233018
Mo   12.179689    4.398344    8.225330
Mo    3.305981    9.918006    6.558790
Mo   13.241503    6.618632    6.582812
Mo    4.372284    7.678064    8.234641
Mo    2.153053   12.087409    8.219128
Mo    1.083363    8.864308    8.230773
Mo    5.578903   11.036853    8.237234
Mo    9.930084    9.930051    6.582812
Mo    6.621304    6.654636    6.459008
Mo   11.002093    7.690641    8.238197
Mo    8.861335   12.134482    8.237356
Mo    7.709796    8.868237    8.225330
Mo   12.175760   11.017720    8.230773
Mo    3.318486    3.302400    9.889144
Mo   13.214447   13.233207    9.889144
Mo    4.244811    0.933358   11.504286
Mo    2.200125    5.549883   11.540931
Mo    1.102496    2.267451   11.541053
Mo    5.686959    4.626175   11.545270
Mo    9.994135    3.313831    9.889144
Mo    6.613852    0.007034    9.889144
Mo   10.989516    1.060832   11.543646
Mo    8.862988    5.551537   11.576750
Mo    7.937628    2.375507   11.545270
Mo   12.179689    4.398344   11.552958
Mo    3.298851    9.902995    9.889144
Mo   13.238780    6.623614    9.889144
Mo    4.372284    7.678064   11.543646
Mo    2.153053   12.087409   11.559159
Mo    1.083363    8.864308   11.547514
Mo    5.578903   11.036853   11.541053
Mo    9.935066    9.927328    9.889144
Mo    6.625283    6.682683    9.889144
Mo   11.002093    7.690641   11.540091
Mo    8.861335   12.134482   11.540931
Mo    7.709796    8.868237   11.552958
Mo   12.175760   11.017720   11.547514
Si   -0.868351    2.418583    0.002846
Si    7.518410    4.206958   13.244583
Si    4.164189   -0.914229    0.010724
Si    5.737637    2.426185   -0.276180
Si   14.140768    4.189000    0.009413
Si   10.808980   -0.893153    0.009410
Si   -0.891802    9.042555   -0.000978
Si    2.397224   14.098546    0.010724
Si   14.108231   10.796780   13.225377
Si    9.054687   14.117321    0.010883
Si   -0.866539    2.422383    3.296381
Si    4.199175   -0.848692    3.296381
Si   14.151379    4.189898    3.296381
Si   10.797797   -0.886045    3.296381
Si   -0.887431    9.046926    3.296381
Si    2.462761   14.133532    3.296381
Si   14.118945   10.807492    3.296381
Si    9.033286   14.155254    3.296381
Si   -0.868351    2.418583    6.589916
Si    4.164189   -0.914229    6.582039
Si   14.140768    4.189000    6.583349
Si   10.808980   -0.893153    6.583353
Si   -0.891802    9.042555    6.593740
Si    2.397224   14.098546    6.582039
Si   14.108231   10.796780    6.552911
Si    9.054687   14.117321    6.581879
Si   -0.867431    2.408287    9.889144
Si    4.133208   -0.967923    9.889144
Si   14.113279    4.197109    9.889144
Si   10.813606   -0.892445    9.889144
Si   -0.891435    9.042922    9.889144
Si    2.343529   14.067564    9.889144
Si   14.098695   10.787242    9.889144
Si    9.047487   14.105061    9.889144
